data_image0
_chemical_formula_structural       Cu16Ni48
_chemical_formula_sum              "Cu16 Ni48"
_cell_length_a       10.0692
_cell_length_b       10.0692
_cell_length_c       26.1661
_cell_angle_alpha    90
_cell_angle_beta     90
_cell_angle_gamma    60

_space_group_name_H-M_alt    "P 1"
_space_group_IT_number       1

loop_
  _space_group_symop_operation_xyz
  'x, y, z'

loop_
  _atom_site_type_symbol
  _atom_site_label
  _atom_site_symmetry_multiplicity
  _atom_site_fract_x
  _atom_site_fract_y
  _atom_site_fract_z
  _atom_site_occupancy
  Cu  Cu1       1.0  0.00000  0.00000  0.38217  1.0000
  Cu  Cu2       1.0  0.33333  0.33333  0.46072  1.0000
  Cu  Cu3       1.0  0.16667  0.16667  0.53678  1.0000
  Cu  Cu4       1.0  0.50000  0.00000  0.61592  1.0000
  Cu  Cu5       1.0  0.00000  0.50000  0.38217  1.0000
  Cu  Cu6       1.0  0.33333  0.83333  0.46072  1.0000
  Cu  Cu7       1.0  0.16667  0.66667  0.53678  1.0000
  Cu  Cu8       1.0  0.50000  0.50000  0.61592  1.0000
  Cu  Cu9       1.0  0.50000  0.00000  0.38217  1.0000
  Cu  Cu10      1.0  0.83333  0.33333  0.46072  1.0000
  Cu  Cu11      1.0  0.66667  0.16667  0.53678  1.0000
  Cu  Cu12      1.0  0.00000  0.00000  0.61592  1.0000
  Cu  Cu13      1.0  0.50000  0.50000  0.38217  1.0000
  Cu  Cu14      1.0  0.83333  0.83333  0.46072  1.0000
  Cu  Cu15      1.0  0.66667  0.66667  0.53678  1.0000
  Cu  Cu16      1.0  0.00000  0.50000  0.61592  1.0000
  Ni  Ni1       1.0  0.25000  0.25000  0.38217  1.0000
  Ni  Ni2       1.0  0.25000  0.00000  0.38217  1.0000
  Ni  Ni3       1.0  0.00000  0.25000  0.38217  1.0000
  Ni  Ni4       1.0  0.08333  0.08333  0.46072  1.0000
  Ni  Ni5       1.0  0.08333  0.33333  0.46072  1.0000
  Ni  Ni6       1.0  0.33333  0.08333  0.46072  1.0000
  Ni  Ni7       1.0  0.41705  0.41705  0.53711  1.0000
  Ni  Ni8       1.0  0.41705  0.16589  0.53711  1.0000
  Ni  Ni9       1.0  0.16589  0.41705  0.53711  1.0000
  Ni  Ni10      1.0  0.25048  0.25048  0.61290  1.0000
  Ni  Ni11      1.0  0.25048  0.99904  0.61290  1.0000
  Ni  Ni12      1.0  0.49904  0.25048  0.61290  1.0000
  Ni  Ni13      1.0  0.25000  0.75000  0.38217  1.0000
  Ni  Ni14      1.0  0.25000  0.50000  0.38217  1.0000
  Ni  Ni15      1.0  0.00000  0.75000  0.38217  1.0000
  Ni  Ni16      1.0  0.08333  0.58333  0.46072  1.0000
  Ni  Ni17      1.0  0.08333  0.83333  0.46072  1.0000
  Ni  Ni18      1.0  0.33333  0.58333  0.46072  1.0000
  Ni  Ni19      1.0  0.41705  0.91705  0.53711  1.0000
  Ni  Ni20      1.0  0.41705  0.66589  0.53711  1.0000
  Ni  Ni21      1.0  0.16589  0.91705  0.53711  1.0000
  Ni  Ni22      1.0  0.25048  0.75048  0.61290  1.0000
  Ni  Ni23      1.0  0.25048  0.49904  0.61290  1.0000
  Ni  Ni24      1.0  0.49904  0.75048  0.61290  1.0000
  Ni  Ni25      1.0  0.75000  0.25000  0.38217  1.0000
  Ni  Ni26      1.0  0.75000  0.00000  0.38217  1.0000
  Ni  Ni27      1.0  0.50000  0.25000  0.38217  1.0000
  Ni  Ni28      1.0  0.58333  0.08333  0.46072  1.0000
  Ni  Ni29      1.0  0.58333  0.33333  0.46072  1.0000
  Ni  Ni30      1.0  0.83333  0.08333  0.46072  1.0000
  Ni  Ni31      1.0  0.91705  0.41705  0.53711  1.0000
  Ni  Ni32      1.0  0.91705  0.16589  0.53711  1.0000
  Ni  Ni33      1.0  0.66589  0.41705  0.53711  1.0000
  Ni  Ni34      1.0  0.75048  0.25048  0.61290  1.0000
  Ni  Ni35      1.0  0.75048  0.99904  0.61290  1.0000
  Ni  Ni36      1.0  0.99904  0.25048  0.61290  1.0000
  Ni  Ni37      1.0  0.75000  0.75000  0.38217  1.0000
  Ni  Ni38      1.0  0.75000  0.50000  0.38217  1.0000
  Ni  Ni39      1.0  0.50000  0.75000  0.38217  1.0000
  Ni  Ni40      1.0  0.58333  0.58333  0.46072  1.0000
  Ni  Ni41      1.0  0.58333  0.83333  0.46072  1.0000
  Ni  Ni42      1.0  0.83333  0.58333  0.46072  1.0000
  Ni  Ni43      1.0  0.91705  0.91705  0.53711  1.0000
  Ni  Ni44      1.0  0.91705  0.66589  0.53711  1.0000
  Ni  Ni45      1.0  0.66589  0.91705  0.53711  1.0000
  Ni  Ni46      1.0  0.75048  0.75048  0.61290  1.0000
  Ni  Ni47      1.0  0.75048  0.49904  0.61290  1.0000
  Ni  Ni48      1.0  0.99904  0.75048  0.61290  1.0000
