data_image0
_chemical_formula_structural       Cu48Ni16H
_chemical_formula_sum              "Cu48 Ni16 H1"
_cell_length_a       10.0692
_cell_length_b       10.0692
_cell_length_c       26.1661
_cell_angle_alpha    90
_cell_angle_beta     90
_cell_angle_gamma    60

_space_group_name_H-M_alt    "P 1"
_space_group_IT_number       1

loop_
  _space_group_symop_operation_xyz
  'x, y, z'

loop_
  _atom_site_type_symbol
  _atom_site_label
  _atom_site_symmetry_multiplicity
  _atom_site_fract_x
  _atom_site_fract_y
  _atom_site_fract_z
  _atom_site_occupancy
  Cu  Cu1       1.0  0.00000  0.00000  0.38217  1.0000
  Cu  Cu2       1.0  0.25000  0.25000  0.38217  1.0000
  Cu  Cu3       1.0  0.25000  0.00000  0.38217  1.0000
  Cu  Cu4       1.0  0.33333  0.33333  0.46072  1.0000
  Cu  Cu5       1.0  0.08333  0.08333  0.46072  1.0000
  Cu  Cu6       1.0  0.08333  0.33333  0.46072  1.0000
  Cu  Cu7       1.0  0.16731  0.16668  0.53865  1.0000
  Cu  Cu8       1.0  0.41649  0.41701  0.53837  1.0000
  Cu  Cu9       1.0  0.41622  0.16692  0.53884  1.0000
  Cu  Cu10      1.0  0.50030  0.00034  0.61733  1.0000
  Cu  Cu11      1.0  0.24894  0.25015  0.61792  1.0000
  Cu  Cu12      1.0  0.24995  0.00039  0.61765  1.0000
  Cu  Cu13      1.0  0.00000  0.50000  0.38217  1.0000
  Cu  Cu14      1.0  0.25000  0.75000  0.38217  1.0000
  Cu  Cu15      1.0  0.25000  0.50000  0.38217  1.0000
  Cu  Cu16      1.0  0.33333  0.83333  0.46072  1.0000
  Cu  Cu17      1.0  0.08333  0.58333  0.46072  1.0000
  Cu  Cu18      1.0  0.08333  0.83333  0.46072  1.0000
  Cu  Cu19      1.0  0.16791  0.66553  0.53904  1.0000
  Cu  Cu20      1.0  0.41614  0.91744  0.53853  1.0000
  Cu  Cu21      1.0  0.41656  0.66553  0.53904  1.0000
  Cu  Cu22      1.0  0.50005  0.50084  0.61931  1.0000
  Cu  Cu23      1.0  0.24843  0.75315  0.61766  1.0000
  Cu  Cu24      1.0  0.24912  0.50084  0.61931  1.0000
  Cu  Cu25      1.0  0.50000  0.00000  0.38217  1.0000
  Cu  Cu26      1.0  0.75000  0.25000  0.38217  1.0000
  Cu  Cu27      1.0  0.75000  0.00000  0.38217  1.0000
  Cu  Cu28      1.0  0.83333  0.33333  0.46072  1.0000
  Cu  Cu29      1.0  0.58333  0.08333  0.46072  1.0000
  Cu  Cu30      1.0  0.58333  0.33333  0.46072  1.0000
  Cu  Cu31      1.0  0.66686  0.16692  0.53884  1.0000
  Cu  Cu32      1.0  0.91625  0.41750  0.53866  1.0000
  Cu  Cu33      1.0  0.91600  0.16668  0.53865  1.0000
  Cu  Cu34      1.0  0.99966  0.00039  0.61765  1.0000
  Cu  Cu35      1.0  0.75091  0.25015  0.61792  1.0000
  Cu  Cu36      1.0  0.74936  0.00034  0.61733  1.0000
  Cu  Cu37      1.0  0.50000  0.50000  0.38217  1.0000
  Cu  Cu38      1.0  0.75000  0.75000  0.38217  1.0000
  Cu  Cu39      1.0  0.75000  0.50000  0.38217  1.0000
  Cu  Cu40      1.0  0.83333  0.83333  0.46072  1.0000
  Cu  Cu41      1.0  0.58333  0.58333  0.46072  1.0000
  Cu  Cu42      1.0  0.58333  0.83333  0.46072  1.0000
  Cu  Cu43      1.0  0.66722  0.66658  0.53862  1.0000
  Cu  Cu44      1.0  0.91642  0.91744  0.53853  1.0000
  Cu  Cu45      1.0  0.91621  0.66658  0.53862  1.0000
  Cu  Cu46      1.0  0.99991  0.50029  0.61772  1.0000
  Cu  Cu47      1.0  0.74974  0.75052  0.61777  1.0000
  Cu  Cu48      1.0  0.74979  0.50029  0.61772  1.0000
  Ni  Ni1       1.0  0.00000  0.25000  0.38217  1.0000
  Ni  Ni2       1.0  0.33333  0.08333  0.46072  1.0000
  Ni  Ni3       1.0  0.16642  0.41727  0.53961  1.0000
  Ni  Ni4       1.0  0.49944  0.25112  0.61657  1.0000
  Ni  Ni5       1.0  0.00000  0.75000  0.38217  1.0000
  Ni  Ni6       1.0  0.33333  0.58333  0.46072  1.0000
  Ni  Ni7       1.0  0.16665  0.91670  0.53925  1.0000
  Ni  Ni8       1.0  0.50047  0.75010  0.61498  1.0000
  Ni  Ni9       1.0  0.50000  0.25000  0.38217  1.0000
  Ni  Ni10      1.0  0.83333  0.08333  0.46072  1.0000
  Ni  Ni11      1.0  0.66631  0.41727  0.53961  1.0000
  Ni  Ni12      1.0  0.99972  0.25056  0.61512  1.0000
  Ni  Ni13      1.0  0.50000  0.75000  0.38217  1.0000
  Ni  Ni14      1.0  0.83333  0.58333  0.46072  1.0000
  Ni  Ni15      1.0  0.66614  0.91771  0.53932  1.0000
  Ni  Ni16      1.0  0.99943  0.75010  0.61498  1.0000
  H   H1        1.0  0.42327  0.40346  0.65287  1.0000
