data_image0
_chemical_formula_structural       Cu32Ni32
_chemical_formula_sum              "Cu32 Ni32"
_cell_length_a       10.0692
_cell_length_b       10.0692
_cell_length_c       26.1661
_cell_angle_alpha    90
_cell_angle_beta     90
_cell_angle_gamma    60

_space_group_name_H-M_alt    "P 1"
_space_group_IT_number       1

loop_
  _space_group_symop_operation_xyz
  'x, y, z'

loop_
  _atom_site_type_symbol
  _atom_site_label
  _atom_site_symmetry_multiplicity
  _atom_site_fract_x
  _atom_site_fract_y
  _atom_site_fract_z
  _atom_site_occupancy
  Cu  Cu1       1.0  0.00000  0.00000  0.38217  1.0000
  Cu  Cu2       1.0  0.25000  0.25000  0.38217  1.0000
  Cu  Cu3       1.0  0.33333  0.33333  0.46072  1.0000
  Cu  Cu4       1.0  0.08333  0.08333  0.46072  1.0000
  Cu  Cu5       1.0  0.16722  0.16722  0.53767  1.0000
  Cu  Cu6       1.0  0.41722  0.41722  0.53767  1.0000
  Cu  Cu7       1.0  0.49847  0.99847  0.61631  1.0000
  Cu  Cu8       1.0  0.24847  0.24847  0.61631  1.0000
  Cu  Cu9       1.0  0.00000  0.50000  0.38217  1.0000
  Cu  Cu10      1.0  0.25000  0.75000  0.38217  1.0000
  Cu  Cu11      1.0  0.33333  0.83333  0.46072  1.0000
  Cu  Cu12      1.0  0.08333  0.58333  0.46072  1.0000
  Cu  Cu13      1.0  0.16722  0.66722  0.53767  1.0000
  Cu  Cu14      1.0  0.41722  0.91722  0.53767  1.0000
  Cu  Cu15      1.0  0.49847  0.49847  0.61631  1.0000
  Cu  Cu16      1.0  0.24847  0.74847  0.61631  1.0000
  Cu  Cu17      1.0  0.50000  0.00000  0.38217  1.0000
  Cu  Cu18      1.0  0.75000  0.25000  0.38217  1.0000
  Cu  Cu19      1.0  0.83333  0.33333  0.46072  1.0000
  Cu  Cu20      1.0  0.58333  0.08333  0.46072  1.0000
  Cu  Cu21      1.0  0.66722  0.16722  0.53767  1.0000
  Cu  Cu22      1.0  0.91722  0.41722  0.53767  1.0000
  Cu  Cu23      1.0  0.99847  0.99847  0.61631  1.0000
  Cu  Cu24      1.0  0.74847  0.24847  0.61631  1.0000
  Cu  Cu25      1.0  0.50000  0.50000  0.38217  1.0000
  Cu  Cu26      1.0  0.75000  0.75000  0.38217  1.0000
  Cu  Cu27      1.0  0.83333  0.83333  0.46072  1.0000
  Cu  Cu28      1.0  0.58333  0.58333  0.46072  1.0000
  Cu  Cu29      1.0  0.66722  0.66722  0.53767  1.0000
  Cu  Cu30      1.0  0.91722  0.91722  0.53767  1.0000
  Cu  Cu31      1.0  0.99847  0.49847  0.61631  1.0000
  Cu  Cu32      1.0  0.74847  0.74847  0.61631  1.0000
  Ni  Ni1       1.0  0.25000  0.00000  0.38217  1.0000
  Ni  Ni2       1.0  0.00000  0.25000  0.38217  1.0000
  Ni  Ni3       1.0  0.08333  0.33333  0.46072  1.0000
  Ni  Ni4       1.0  0.33333  0.08333  0.46072  1.0000
  Ni  Ni5       1.0  0.41671  0.16671  0.53793  1.0000
  Ni  Ni6       1.0  0.16671  0.41671  0.53793  1.0000
  Ni  Ni7       1.0  0.24761  0.99761  0.61413  1.0000
  Ni  Ni8       1.0  0.49761  0.24761  0.61413  1.0000
  Ni  Ni9       1.0  0.25000  0.50000  0.38217  1.0000
  Ni  Ni10      1.0  0.00000  0.75000  0.38217  1.0000
  Ni  Ni11      1.0  0.08333  0.83333  0.46072  1.0000
  Ni  Ni12      1.0  0.33333  0.58333  0.46072  1.0000
  Ni  Ni13      1.0  0.41671  0.66671  0.53793  1.0000
  Ni  Ni14      1.0  0.16671  0.91671  0.53793  1.0000
  Ni  Ni15      1.0  0.24761  0.49761  0.61413  1.0000
  Ni  Ni16      1.0  0.49761  0.74761  0.61413  1.0000
  Ni  Ni17      1.0  0.75000  0.00000  0.38217  1.0000
  Ni  Ni18      1.0  0.50000  0.25000  0.38217  1.0000
  Ni  Ni19      1.0  0.58333  0.33333  0.46072  1.0000
  Ni  Ni20      1.0  0.83333  0.08333  0.46072  1.0000
  Ni  Ni21      1.0  0.91671  0.16671  0.53793  1.0000
  Ni  Ni22      1.0  0.66671  0.41671  0.53793  1.0000
  Ni  Ni23      1.0  0.74761  0.99761  0.61413  1.0000
  Ni  Ni24      1.0  0.99761  0.24761  0.61413  1.0000
  Ni  Ni25      1.0  0.75000  0.50000  0.38217  1.0000
  Ni  Ni26      1.0  0.50000  0.75000  0.38217  1.0000
  Ni  Ni27      1.0  0.58333  0.83333  0.46072  1.0000
  Ni  Ni28      1.0  0.83333  0.58333  0.46072  1.0000
  Ni  Ni29      1.0  0.91671  0.66671  0.53793  1.0000
  Ni  Ni30      1.0  0.66671  0.91671  0.53793  1.0000
  Ni  Ni31      1.0  0.74761  0.49761  0.61413  1.0000
  Ni  Ni32      1.0  0.99761  0.74761  0.61413  1.0000
